# total energy = 510500 eV

CRYSTAL
PRIMVEC
8.568000 0.000 0.000
0.000 8.568000 0.000
0.000 0.000 8.568000
PRIMCOORD
108  1
Al  8.55147  0.024546  0.034531  82.0041  -94.3342  -104.589
Al  1.44458  1.43191  0.023302  -3986.55  -4123.28  518.766
Al  1.45252  8.54096  1.4123  -82.7964  148.228  -62.3832
Al  0.024398  1.44341  1.47196  -136.609  -57.4869  -67.5462
Al  2.87487  8.55744  8.5649  -31.0787  105.226  105.917
Al  4.32816  1.37813  8.54152  -1.69607  -59.3764  163.659
Al  4.31913  0.001142  1.46545  1772.2  -828.178  -416.069
Al  2.90725  1.39054  1.41968  1672.74  -1082.27  -726.907
Al  5.73846  8.56121  0.060332  21.0418  110.928  -137.406
Al  7.11839  1.40055  0.038906  3720.15  -11217.9  4445.08
Al  7.17145  0.00205  1.53701  78.4004  -131.418  -128.596
Al  5.70284  1.43588  1.49149  598.849  -598.309  2910.49
Al  8.56263  2.7904  8.53506  119.969  -33.9889  147.336
Al  1.40268  4.24795  8.51832  -83.3818  21.8054  176.66
Al  1.44687  2.83235  1.38028  2234.97  -560.58  -1967.87
Al  0.001483  4.27508  1.36488  -145.235  13.6982  -58.656
Al  2.84825  2.78892  8.55799  -28.7216  -46.7847  172.22
Al  4.32219  4.27198  8.56234  7.17665  18.3788  113.327
Al  4.27006  2.84393  1.38228  -2770.8  -2834.15  -6445.09
Al  2.86802  4.28585  1.34965  -45.5637  -26.0483  -102.288
Al  5.71639  2.84425  8.55728  210.153  -20286.1  15830.7
Al  7.13255  4.3087  8.54284  71.6373  6.44232  143.392
Al  7.10793  2.88972  1.41148  121.531  -49.9245  -74.362
Al  5.72186  4.32284  1.44562  48.3519  -24.6683  -103.493
Al  0.00286  5.74178  0.025012  -124.326  4.57528  -123.837
Al  1.43215  7.15262  8.53841  -283.624  20303.5  -15512.7
Al  1.4026  5.73479  1.40565  -7898.97  4310.09  -7354.7
Al  8.56009  7.17177  1.44721  440.974  2274.23  3149.23
Al  2.82175  5.72345  0.022838  -3666.01  11182  -4782.06
Al  4.31763  7.16044  0.017293  -2.27788  87.1694  -150.804
Al  4.27998  5.70333  1.42768  7.95144  39.7764  -79.8945
Al  2.8968  7.14458  1.45687  -44.8031  85.8331  -121.942
Al  5.77368  5.76285  0.015611  3928.32  4074.83  -853.531
Al  7.16369  7.19868  0.041145  81.8503  86.7848  -170.423
Al  7.15278  5.74161  1.4476  8173.35  2616.81  -945.496
Al  5.71448  7.15389  1.50685  40.6986  107.415  -93.4711
Al  0.035917  0.017423  2.88434  -118.058  -99.5601  -32.8636
Al  1.46135  1.45195  2.89059  -89.3595  -96.1325  -29.9101
Al  1.39723  8.55427  4.28504  -67.3137  141.519  -5.82428
Al  0.03704  1.43625  4.29387  -118.832  -51.3231  5.51517
Al  2.86999  0.010649  2.87777  2457.85  -3252.63  -6752.88
Al  4.29918  1.46037  2.89734  0.820275  -75.3686  -41.9697
Al  4.34057  0.031996  4.28125  -16.1886  -121.913  10.6305
Al  2.86629  1.47179  4.30076  -30.1248  -79.7958  16.728
Al  5.69839  8.54932  2.88586  40.7286  130.252  -53.2901
Al  7.15613  1.49484  2.84952  93.933  -130.197  -46.0743
Al  7.15651  0.037219  4.22062  71.3378  -147.491  21.4029
Al  5.69516  1.47883  4.27436  40.9451  -89.3638  -1.7699
Al  0.054173  2.92308  2.85586  -151.677  -23.4542  -22.2697
Al  1.43883  4.32613  2.81675  -136.421  -6.6586  -36.9782
Al  1.4409  2.87657  4.3062  -82.9159  -42.3541  -11.2879
Al  8.55418  4.28687  4.33219  111.679  -14.1389  -19.0142
Al  2.83844  2.86041  2.81789  -763.528  2461.06  -6564.16
Al  4.25226  4.22704  2.85292  -8619.85  -23892.8  -8643.73
Al  2.83119  4.24791  4.30828  -27.9103  -18.2626  0.583207
Al  5.69214  2.88903  2.8777  57.1201  -50.1592  -53.2383
Al  7.10518  2.93023  4.26816  108.631  -37.7662  -1.28452
Al  5.68751  4.34112  4.29904  27.88  -14.8181  7.60873
Al  8.54339  5.68008  2.8099  154.701  53.0263  -32.7892
Al  1.45043  7.12003  2.87456  -93.9094  103.747  -44.0841
Al  1.40186  5.66999  4.25606  -96.2554  47.226  9.64465
Al  8.55773  7.124  4.2865  110.423  88.519  -9.68327
Al  2.83715  5.6631  2.83038  -830.471  -1888.65  -1009.85
Al  4.25948  7.10327  2.90679  0.844687  7.24328  -4.06255
Al  4.24903  5.68864  4.32648  1.1126  45.0728  -16.259
Al  2.8581  7.09745  4.28399  -31.9781  111.513  3.6068
Al  5.71265  5.69493  2.87575  7360.98  -5146.08  -11499.8
Al  7.18675  7.14159  2.87344  88.741  127.661  -53.5813
Al  7.14549  5.72565  4.27915  73.2722  34.1342  -7.93957
Al  5.74844  7.10228  4.29282  14.6771  101.485  -4.06121
Al  8.54539  0.002789  5.71458  2204.61  -1918.99  -2494.27
Al  1.4625  1.41572  5.7062  3882.21  -2461.1  1162.89
Al  1.43081  8.5657  7.12088  -76.0347  141.235  88.2946
Al  0.01159  1.39759  7.14223  -149.811  -81.7441  89.2644
Al  2.85522  8.52058  5.69667  -12.8012  142.618  22.2309
Al  4.27261  1.40936  5.69801  1.14569  -104.504  27.5932
Al  4.26209  8.54548  7.1458  4779.71  16817.6  4361.39
Al  2.88948  1.40353  7.12418  -49.7747  -110.347  110.36
Al  5.74806  8.54643  5.68098  29.7517  167.407  39.4722
Al  7.14577  1.45642  5.67238  92.5622  -105.638  42.0621
Al  7.11203  0.00643  7.14679  -1917.52  -704.706  2745.02
Al  5.69289  1.39692  7.09972  62.7517  -862.167  -2355.69
Al  0.02024  2.86085  5.71763  -153.553  -39.4431  30.5721
Al  1.43913  4.2815  5.76362  -99.0791  -13.4846  14.2501
Al  1.45538  2.81113  7.14029  -129.223  -57.1948  104.707
Al  8.5577  4.26713  7.16074  4003.73  7218.77  4356.93
Al  2.88454  2.86959  5.71657  -37.2576  -54.4586  17.3835
Al  4.21666  4.32555  5.76915  -3861.28  2481.69  2930.59
Al  4.23939  2.84496  7.17864  -2957.75  -5354.88  3035.14
Al  2.85773  4.30617  7.20581  -3141.3  2670.69  11799.5
Al  5.69493  2.89963  5.74617  32.4792  -70.5361  31.267
Al  7.09434  4.29229  5.72606  81.5021  3.49579  11.1741
Al  7.12843  2.8394  7.15651  828.933  -2555.94  6632.94
Al  5.70348  4.29779  7.15405  18.3186  -7.94968  79.2255
Al  8.54955  5.7261  5.72074  152.602  53.9211  43.6894
Al  1.37786  7.1311  5.71875  -2478.18  610.911  1898.17
Al  1.40809  5.70952  7.19194  -7463.49  6017.23  14074.2
Al  8.54977  7.17616  7.15233  3118.02  5358.61  -2866.91
Al  2.81804  5.72544  5.73693  -9824.04  -1546.59  1535.25
Al  4.31804  7.13946  5.7266  2471.2  693.332  3120.49
Al  4.28338  5.72397  7.18567  0.777236  45.1119  88.0124
Al  2.86128  7.10586  7.12454  -34.1369  118.935  90.5968
Al  5.73557  5.71341  5.73775  3240  -1354.66  3177.82
Al  7.1125  7.1848  5.67452  128.722  101.155  42.0661
Al  7.1555  5.74938  7.15757  867.762  2004.42  1116.27
Al  5.72307  7.16255  7.1522  38.3527  100.761  95.6502
Ti  7.16252  4.30489  2.79599  2702.53  986.9  -7655.89
Ti  4.25245  2.88258  4.30908  6.82287  -46.9644  -11.5568
